   18
 
C   -0.1380763E-01  -0.5567777E-08  -0.2391689E-01
C    0.1386192E+01  -0.1306051E-06  -0.2391643E-01
C    0.2086192E+01  -0.1262348E-06   0.1188519E+01
C    0.1386192E+01   0.1029224E-07   0.2400955E+01
C   -0.1380847E-01   0.1338959E-06   0.2400954E+01
C   -0.7138081E+00   0.1242261E-06   0.1188518E+01
N   -0.7008073E+00  -0.8256426E-09  -0.1213836E+01
O   -0.3498525E-01   0.2506361E-09  -0.2295308E+01
O   -0.1970300E+01   0.2514655E-09  -0.1177954E+01
N    0.2073191E+01   0.1037067E-07   0.3590874E+01
C    0.3520087E+01   0.1701252E-06   0.3668937E+01
C    0.1417347E+01  -0.1827765E-06   0.4882954E+01
H    0.3938346E+01   0.2098346E-06   0.2662379E+01
H    0.3855302E+01   0.8899536E+00   0.4201585E+01
H    0.3855302E+01  -0.8899532E+00   0.4201585E+01
H    0.2169197E+01  -0.2298900E-06   0.5672145E+01
H    0.7946839E+00   0.8899532E+00   0.4974459E+01
H    0.7946840E+00  -0.8899536E+00   0.4974459E+01
