   18
 
C    0.3089157E-06   0.4998969E-01   0.2439173E-01
C   -0.1095636E-07  -0.1033083E+00   0.1428826E+01
C   -0.3538815E-07   0.1137015E+01   0.2096965E+01
C   -0.7429984E-07   0.2330579E+01   0.1358936E+01
C   -0.5682608E-07   0.2347293E+01  -0.3565875E-01
C    0.7123971E-08   0.1186831E+01  -0.8020051E+00
N   -0.7625681E-07  -0.1138643E+01  -0.6648292E+00
O   -0.2852467E-07  -0.2221360E+01  -0.1046501E-02
O   -0.2852787E-07  -0.1100395E+01  -0.1934254E+01
N    0.1900569E-07   0.3526692E+01   0.2035110E+01
C    0.2426281E-08   0.3678048E+01   0.3476197E+01
C    0.2422071E-08   0.4839477E+01   0.1421759E+01
H   -0.1436225E-08   0.2693982E+01   0.3944911E+01
H    0.8899631E+00   0.4226972E+01   0.3783951E+01
H   -0.8899631E+00   0.4226972E+01   0.3783951E+01
H   -0.1433796E-08   0.5603708E+01   0.2198945E+01
H    0.8899544E+00   0.4951234E+01   0.8024379E+00
H   -0.8899544E+00   0.4951234E+01   0.8024379E+00
