18
 
C         0.00000        0.00000        0.00000
C         0.00000        0.00000        1.40000
C         0.00000        1.21244        2.10000
C         0.00000        2.42487        1.40000
C         0.00000        2.42487        0.00000
C         0.00000        1.21244       -0.70000
N        -0.00000       -1.29904       -0.75000
O        -0.00000       -2.51147       -0.05000
O        -0.00000       -1.29904       -2.15000
N         0.00000        3.72391        2.15000
C         0.00000        3.72391        3.65000
C         0.00000        5.02295        1.40000
H         0.00000        2.69025        4.02622
H         0.89518        4.24074        4.02622
H        -0.89518        4.24074        4.02622
H         0.00000        5.86560        2.10707
H         0.89518        5.09035        0.76430
H        -0.89518        5.09035        0.76430
